 
  Marvin  10181015082D          

 25 26  0  0  0  0            999 V2000
    5.8162   -3.7125    0.0000 N   0  0  0  0  0  0  0  0  0  0  0  0
    5.8162   -4.5375    0.0000 C   0  0  0  0  0  0  0  0  0  0  0  0
    5.1150   -4.9500    0.0000 N   0  0  0  0  0  0  0  0  0  0  0  0
    4.3725   -4.5375    0.0000 C   0  0  0  0  0  0  0  0  0  0  0  0
    4.3725   -3.7125    0.0000 C   0  0  0  0  0  0  0  0  0  0  0  0
    5.0737   -3.3000    0.0000 C   0  0  0  0  0  0  0  0  0  0  0  0
    3.6580   -3.3000    0.0000 C   0  0  0  0  0  0  0  0  0  0  0  0
    2.9435   -3.7125    0.0000 C   0  0  0  0  0  0  0  0  0  0  0  0
    2.9435   -4.5375    0.0000 C   0  0  0  0  0  0  0  0  0  0  0  0
    3.6580   -4.9500    0.0000 C   0  0  0  0  0  0  0  0  0  0  0  0
    3.6580   -2.4750    0.0000 Cl  0  0  0  0  0  0  0  0  0  0  0  0
    2.2291   -3.3000    0.0000 Cl  0  0  0  0  0  0  0  0  0  0  0  0
    6.6009   -4.7924    0.0000 N   0  0  0  0  0  0  0  0  0  0  0  0
    7.0858   -4.1250    0.0000 C   0  0  0  0  0  0  0  0  0  0  0  0
    6.6009   -3.4576    0.0000 C   0  0  0  0  0  0  0  0  0  0  0  0
    7.9108   -4.1250    0.0000 O   0  0  0  0  0  0  0  0  0  0  0  0
    9.8587   -4.7025    0.0000 Cl  0  0  0  0  0  0  0  0  0  0  0  0
    4.6782   -2.5760    0.0000 H   0  0  0  0  0  0  0  0  0  0  0  0
    5.4513   -2.5665    0.0000 H   0  0  0  0  0  0  0  0  0  0  0  0
    2.2291   -4.9500    0.0000 H   0  0  0  0  0  0  0  0  0  0  0  0
    3.6581   -5.7750    0.0000 H   0  0  0  0  0  0  0  0  0  0  0  0
    6.8558   -5.5770    0.0000 H   0  0  0  0  0  0  0  0  0  0  0  0
    7.2082   -2.8992    0.0000 H   0  0  0  0  0  0  0  0  0  0  0  0
    6.4378   -2.6488    0.0000 H   0  0  0  0  0  0  0  0  0  0  0  0
   10.6837   -4.7025    0.0000 H   0  0  0  0  0  0  0  0  0  0  0  0
  2  3  2  0  0  0  0
  3  4  1  0  0  0  0
  4  5  2  0  0  0  0
  5  6  1  0  0  0  0
  6  1  1  0  0  0  0
  1  2  1  0  0  0  0
  5  7  1  0  0  0  0
  7  8  2  0  0  0  0
  8  9  1  0  0  0  0
  9 10  2  0  0  0  0
 10  4  1  0  0  0  0
  7 11  1  0  0  0  0
  8 12  1  0  0  0  0
  2 13  1  0  0  0  0
 13 14  1  0  0  0  0
 14 15  1  0  0  0  0
  1 15  1  0  0  0  0
 14 16  2  0  0  0  0
  6 18  1  0  0  0  0
  6 19  1  0  0  0  0
  9 20  1  0  0  0  0
 10 21  1  0  0  0  0
 13 22  1  0  0  0  0
 15 23  1  0  0  0  0
 15 24  1  0  0  0  0
 17 25  1  0  0  0  0
M  END
> <DRUGBANK_ID>
DB00261

> <DRUG_GROUPS>
approved

> <GENERIC_NAME>
Anagrelide

> <SYNONYMS>
Anagrelide HCL; Anagrelide Hydrochloride; BL-4162A

> <BRANDS>
Agrylin; Xagrid

> <CHEMICAL_FORMULA>
C10H8Cl3N3O

> <MOLECULAR_WEIGHT>
292.549

> <EXACT_MASS>
290.973295014

> <IUPAC_NAME>
6,7-dichloro-1H,2H,3H,5H-imidazolidino[2,1-b]quinazolin-2-one hydrochloride

> <INCHI_IDENTIFIER>
InChI=1S/C10H7Cl2N3O.ClH/c11-6-1-2-7-5(9(6)12)3-15-4-8(16)14-10(15)13-7;/h1-2H,3-4H2,(H,13,14,16);1H

> <INCHI_KEY>
InChIKey=TVWRQCIPWUCNMI-UHFFFAOYSA-N

> <SMILES>
Cl.ClC1=C(Cl)C2=C(C=C1)N=C1NC(=O)CN1C2

> <JCHEM_ACCEPTOR_COUNT>
3

> <JCHEM_DONOR_COUNT>
1

> <JCHEM_LOGP>
1.94

> <JCHEM_POLARIZABILITY>
23.61

> <JCHEM_POLAR_SURFACE_AREA>
44.70

> <JCHEM_REFRACTIVITY>
63.25

> <JCHEM_ROTATABLE_BOND_COUNT>
0

$$$$

